Version 4
SHEET 1 880 680
WIRE 80 112 -48 112
WIRE 192 112 80 112
WIRE 240 112 192 112
WIRE 304 112 240 112
WIRE 416 112 304 112
WIRE 512 112 416 112
WIRE -16 192 -48 192
WIRE 80 192 48 192
WIRE 96 192 80 192
WIRE 192 192 160 192
WIRE 224 192 192 192
WIRE 320 192 304 192
WIRE 416 192 384 192
WIRE 432 192 416 192
WIRE 512 192 496 192
WIRE -48 208 -48 192
WIRE 512 208 512 192
WIRE 304 240 304 192
WIRE 304 240 176 240
WIRE 176 256 176 240
WIRE 176 256 16 256
WIRE 224 256 224 192
WIRE 448 256 224 256
WIRE 528 304 512 304
FLAG -48 304 0
FLAG 528 304 0
SYMBOL res 64 96 R0
SYMATTR InstName R1
SYMATTR Value 6k8
SYMBOL res 176 96 R0
SYMATTR InstName R2
SYMATTR Value 10k
SYMBOL res 288 96 R0
SYMATTR InstName R3
SYMATTR Value 10k
SYMBOL res 400 96 R0
SYMATTR InstName R4
SYMATTR Value 6k8
SYMBOL res -64 96 R0
SYMATTR InstName R5
SYMATTR Value 6k8
SYMBOL res 496 96 R0
SYMATTR InstName R6
SYMATTR Value 6k8
SYMBOL cap 160 176 R90
WINDOW 0 0 32 VBottom 2
WINDOW 3 32 32 VTop 2
SYMATTR InstName C1
SYMATTR Value 10n
SYMBOL cap 384 176 R90
WINDOW 0 0 32 VBottom 2
WINDOW 3 32 32 VTop 2
SYMATTR InstName C2
SYMATTR Value 10n
SYMBOL diode 48 176 R90
WINDOW 0 0 32 VBottom 2
WINDOW 3 32 32 VTop 2
SYMATTR InstName D1
SYMATTR Value 1N4004
SYMBOL diode 432 208 R270
WINDOW 0 32 32 VTop 2
WINDOW 3 0 32 VBottom 2
SYMATTR InstName D2
SYMATTR Value 1N4004
SYMBOL npn 448 208 R0
SYMATTR InstName Q1
SYMATTR Value BC548Cv
SYMBOL npn 16 208 M0
SYMATTR InstName Q2
SYMATTR Value BC548Cv
SYMBOL Fontes\\+5V 240 112 R0
SYMATTR InstName U1
TEXT 288 48 Left 2 !.tran 4m
TEXT -480 200 Left 2 !.ic v(n003)=5
