Version 4
SHEET 1 880 680
WIRE 416 0 -288 0
WIRE 416 64 416 0
WIRE 592 144 416 144
WIRE 144 176 32 176
WIRE 320 176 224 176
WIRE 320 192 320 176
WIRE 352 192 320 192
WIRE -288 256 -288 80
WIRE 32 256 -288 256
WIRE -288 304 -288 256
WIRE 32 336 32 256
WIRE 416 336 416 240
WIRE 416 336 32 336
WIRE 592 336 592 224
WIRE 592 336 416 336
FLAG -288 304 0
SYMBOL npn 352 144 R0
SYMATTR InstName Q1
SYMATTR Value BC548Av
SYMBOL res 400 48 R0
SYMATTR InstName R1
SYMATTR Value 1k
SYMBOL Misc\\signal 32 160 R0
WINDOW 123 0 0 Left 2
WINDOW 39 0 0 Left 2
SYMATTR InstName V2
SYMATTR Value PULSE(0 5 0 0 0 2ms 4ms 5)
SYMBOL Misc\\signal -288 -16 R0
WINDOW 123 0 0 Left 2
WINDOW 39 0 0 Left 2
SYMATTR InstName V3
SYMATTR Value 5
SYMBOL res 576 128 R0
SYMATTR InstName R5
SYMATTR Value 10k
SYMBOL res 240 160 R90
WINDOW 0 0 56 VBottom 2
WINDOW 3 32 56 VTop 2
SYMATTR InstName R2
SYMATTR Value 1000
TEXT -96 296 Left 2 !.tran 100m
