Version 4
SHEET 1 1124 680
WIRE -160 80 -320 80
WIRE 224 80 16 80
WIRE 384 80 224 80
WIRE 608 80 528 80
WIRE 720 80 608 80
WIRE 896 80 800 80
WIRE 1040 80 896 80
WIRE 1040 96 1040 80
WIRE -320 112 -320 80
WIRE 896 112 896 80
WIRE 608 128 608 80
WIRE 528 144 528 80
WIRE 528 144 384 144
WIRE 528 160 336 160
WIRE 224 176 224 144
WIRE 336 176 336 160
WIRE 336 176 224 176
WIRE 384 176 384 144
WIRE -320 240 -320 192
WIRE -160 240 -160 176
WIRE -160 240 -320 240
WIRE 16 240 16 176
WIRE 224 240 16 240
WIRE 384 240 224 240
WIRE 528 240 528 160
WIRE 608 240 608 192
WIRE 608 240 528 240
WIRE 896 240 896 176
WIRE 896 240 608 240
WIRE 1040 240 1040 176
WIRE 1040 240 896 240
WIRE 528 304 528 240
FLAG 528 304 0
SYMBOL Misc\\signal -320 96 R0
WINDOW 123 0 0 Left 2
WINDOW 39 0 0 Left 2
SYMATTR InstName V1
SYMATTR Value SINE(0 220 60)
SYMBOL res 1024 80 R0
SYMATTR InstName R1
SYMATTR Value 100
SYMBOL diode 368 80 R0
SYMATTR InstName D1
SYMATTR Value 1N4001
SYMBOL diode 400 240 R180
WINDOW 0 24 64 Left 2
WINDOW 3 24 0 Left 2
SYMATTR InstName D2
SYMATTR Value 1N4001
SYMBOL diode 240 144 R180
WINDOW 0 24 64 Left 2
WINDOW 3 24 0 Left 2
SYMATTR InstName D3
SYMATTR Value 1N4001
SYMBOL diode 208 176 R0
SYMATTR InstName D4
SYMATTR Value 1N4001
SYMBOL polcap 592 128 R0
WINDOW 3 24 56 Left 2
SYMATTR Value 1000µ
SYMATTR InstName C1
SYMATTR Description Capacitor
SYMATTR Type cap
SYMATTR SpiceLine V=25 Irms=145m Rser=0.62 Lser=0
SYMBOL res 704 96 R270
WINDOW 0 32 56 VTop 2
WINDOW 3 0 56 VBottom 2
SYMATTR InstName R2
SYMATTR Value 30
SYMBOL Trafos\\trafo12V -64 128 R0
SYMATTR InstName U2
SYMBOL Zeners\\1N4742A 896 144 R0
SYMATTR InstName U3
TEXT 416 16 Left 2 !.tran 100m
