Version 4
SHEET 1 1124 680
WIRE -48 80 -176 80
WIRE 224 80 128 80
WIRE 384 80 224 80
WIRE 608 80 528 80
WIRE 784 80 608 80
WIRE 944 80 816 80
WIRE 1040 80 944 80
WIRE 1040 96 1040 80
WIRE -176 112 -176 80
WIRE -48 112 -48 80
WIRE 128 112 128 80
WIRE 944 112 944 80
WIRE 608 128 608 80
WIRE 528 144 528 80
WIRE 528 144 384 144
WIRE 528 160 336 160
WIRE 224 176 224 144
WIRE 336 176 336 160
WIRE 336 176 224 176
WIRE 384 176 384 144
WIRE -176 240 -176 192
WIRE -48 240 -48 208
WIRE -48 240 -176 240
WIRE 128 240 128 208
WIRE 224 240 128 240
WIRE 384 240 224 240
WIRE 528 240 528 160
WIRE 608 240 608 192
WIRE 608 240 528 240
WIRE 800 240 800 80
WIRE 800 240 608 240
WIRE 944 240 944 176
WIRE 944 240 800 240
WIRE 1040 240 1040 176
WIRE 1040 240 944 240
WIRE 528 304 528 240
FLAG 528 304 0
SYMBOL Misc\\signal -176 96 R0
WINDOW 123 0 0 Left 2
WINDOW 39 0 0 Left 2
SYMATTR InstName V1
SYMATTR Value SINE(0 220 60)
SYMBOL res 1024 80 R0
SYMATTR InstName R1
SYMATTR Value 50
SYMBOL diode 368 80 R0
SYMATTR InstName D1
SYMATTR Value 1N4001
SYMBOL diode 400 240 R180
WINDOW 0 24 64 Left 2
WINDOW 3 24 0 Left 2
SYMATTR InstName D2
SYMATTR Value 1N4001
SYMBOL diode 240 144 R180
WINDOW 0 24 64 Left 2
WINDOW 3 24 0 Left 2
SYMATTR InstName D3
SYMATTR Value 1N4001
SYMBOL diode 208 176 R0
SYMATTR InstName D4
SYMATTR Value 1N4001
SYMBOL polcap 592 128 R0
WINDOW 3 24 56 Left 2
SYMATTR Value 400µ
SYMATTR InstName C1
SYMATTR Description Capacitor
SYMATTR Type cap
SYMATTR SpiceLine V=25 Irms=145m Rser=0.62 Lser=0
SYMBOL polcap 928 112 R0
WINDOW 3 24 56 Left 2
SYMATTR Value 0.1µ
SYMATTR InstName C2
SYMATTR Description Capacitor
SYMATTR Type cap
SYMATTR SpiceLine V=25 Irms=145m Rser=0.62 Lser=0
SYMBOL Reguladores\\LM7812 800 16 R0
SYMATTR InstName U2
SYMBOL Trafos\\trafo12V 48 160 R0
SYMATTR InstName U1
TEXT 416 16 Left 2 !.tran 100m
