Version 4
SHEET 1 1480 680
WIRE 1008 48 992 48
WIRE 1056 48 1056 16
WIRE -64 112 -176 112
WIRE 128 112 16 112
WIRE 320 112 208 112
WIRE 512 112 400 112
WIRE 992 112 992 48
WIRE 992 112 592 112
WIRE 1056 144 1056 112
WIRE 1216 144 1056 144
WIRE 1280 144 1216 144
WIRE 1056 176 1056 144
WIRE -224 192 -368 192
WIRE -64 192 -64 112
WIRE -32 192 -64 192
WIRE 128 192 128 112
WIRE 160 192 128 192
WIRE 320 192 320 112
WIRE 352 192 320 192
WIRE 512 192 512 112
WIRE 544 192 512 192
WIRE -176 224 -176 208
WIRE 16 224 16 208
WIRE 208 224 208 208
WIRE 400 224 400 208
WIRE 592 224 592 208
WIRE 992 240 992 112
WIRE 1008 240 992 240
WIRE 128 256 -64 256
WIRE 320 256 128 256
WIRE 512 256 320 256
WIRE 704 256 704 176
WIRE 704 256 512 256
WIRE 768 256 704 256
WIRE 1056 272 1056 240
WIRE 1216 288 1216 208
WIRE 1280 288 1280 224
WIRE 1280 288 1216 288
WIRE 704 304 704 256
WIRE 1216 336 1216 288
FLAG -176 224 0
FLAG 16 224 0
FLAG 208 224 0
FLAG 400 224 0
FLAG 592 224 0
FLAG 704 304 0
FLAG 1056 272 0
FLAG 1216 336 0
SYMBOL nmos -224 112 R0
SYMATTR InstName M1
SYMBOL Fontes\\+5V -176 32 R0
SYMATTR InstName U2
SYMBOL res -192 16 R0
SYMATTR InstName R4
SYMATTR Value 100k
SYMBOL nmos -32 112 R0
SYMATTR InstName M2
SYMBOL Fontes\\+5V 16 32 R0
SYMATTR InstName U4
SYMBOL res 0 16 R0
SYMATTR InstName R5
SYMATTR Value 100k
SYMBOL Fontes\\CLOCK\ 5V -448 192 R0
SYMATTR SpiceLine per={0.001us}
SYMATTR InstName U1
SYMBOL nmos 160 112 R0
SYMATTR InstName M3
SYMBOL Fontes\\+5V 208 32 R0
SYMATTR InstName U3
SYMBOL res 192 16 R0
SYMATTR InstName R1
SYMATTR Value 100k
SYMBOL nmos 352 112 R0
SYMATTR InstName M4
SYMBOL Fontes\\+5V 400 32 R0
SYMATTR InstName U5
SYMBOL res 384 16 R0
SYMATTR InstName R2
SYMATTR Value 100k
SYMBOL nmos 544 112 R0
SYMATTR InstName M5
SYMBOL Fontes\\+5V 592 32 R0
SYMATTR InstName U6
SYMBOL res 576 16 R0
SYMATTR InstName R3
SYMATTR Value 100k
SYMBOL cap -80 192 R0
SYMATTR InstName C1
SYMATTR Value 0.0001pf
SYMBOL cap 112 192 R0
SYMATTR InstName C2
SYMATTR Value 0.0001pf
SYMBOL cap 304 192 R0
SYMATTR InstName C3
SYMATTR Value 0.0001pf
SYMBOL cap 496 192 R0
SYMATTR InstName C4
SYMATTR Value 0.0001pf
SYMBOL CMOS\\NM.35um 1040 208 R0
SYMATTR InstName U8
SYMBOL CMOS\\PM.35um 1040 80 R0
SYMATTR InstName U7
SYMBOL Fontes\\+5V 1056 16 R0
SYMATTR InstName U9
SYMBOL cap 1200 144 R0
SYMATTR InstName C6
SYMATTR Value 0.0001pF
SYMBOL res 1264 128 R0
SYMATTR InstName R7
SYMATTR Value 10000000000k
TEXT -544 248 Left 2 !.tran 0.000000003s
