Version 4
SHEET 1 1156 680
WIRE 768 -112 768 -176
WIRE 832 -112 768 -112
WIRE 944 -112 832 -112
WIRE 1040 -112 944 -112
WIRE 1152 -112 1040 -112
WIRE 832 -64 832 -112
WIRE 1040 -32 1040 -112
WIRE 176 48 112 48
WIRE -160 80 -416 80
WIRE 112 80 112 48
WIRE 112 80 16 80
WIRE 608 80 448 80
WIRE 784 80 784 -176
WIRE 784 80 608 80
WIRE 832 96 832 16
WIRE 832 96 816 96
WIRE 1040 96 1040 32
WIRE -416 112 -416 80
WIRE 944 112 944 -112
WIRE 448 128 448 80
WIRE 448 128 384 128
WIRE 608 128 608 80
WIRE 752 144 752 -176
WIRE 816 144 816 96
WIRE 816 144 752 144
WIRE 16 208 16 176
WIRE 176 208 16 208
WIRE -416 240 -416 192
WIRE -160 240 -160 176
WIRE -160 240 -416 240
WIRE 528 240 384 240
WIRE 608 240 608 192
WIRE 608 240 528 240
WIRE 848 240 848 176
WIRE 848 240 608 240
WIRE 944 240 944 176
WIRE 944 240 848 240
WIRE 1040 240 1040 176
WIRE 1040 240 944 240
WIRE 1152 240 1040 240
WIRE 528 304 528 240
FLAG 528 304 0
SYMBOL Misc\\signal -416 96 R0
WINDOW 123 0 0 Left 2
WINDOW 39 0 0 Left 2
SYMATTR InstName V1
SYMATTR Value SINE(0 220 60)
SYMBOL res 1024 80 R0
SYMATTR InstName R1
SYMATTR Value 333
SYMBOL polcap 592 128 R0
WINDOW 3 24 56 Left 2
SYMATTR Value 1000µ
SYMATTR InstName C1
SYMATTR Description Capacitor
SYMATTR Type cap
SYMATTR SpiceLine V=25 Irms=145m Rser=0.62 Lser=0
SYMBOL Reguladores\\LM317 768 -240 R0
SYMATTR InstName U1
SYMBOL res 816 -80 R0
SYMATTR InstName R2
SYMATTR Value 260
SYMBOL polcap 928 112 R0
WINDOW 3 24 56 Left 2
SYMATTR Value 1µ
SYMATTR InstName C2
SYMATTR Description Capacitor
SYMATTR Type cap
SYMATTR SpiceLine V=25 Irms=145m Rser=0.62 Lser=0
SYMBOL Trafos\\trafo12V -64 128 R0
SYMATTR InstName U2
SYMBOL Bridges\\DF02 288 128 R0
SYMATTR InstName U3
SYMBOL Potenciômetros\\T5k 848 144 R180
SYMATTR InstName U4
SYMBOL LED 1024 -32 R0
SYMATTR InstName D1
TEXT 416 16 Left 2 !.tran 100m
