Version 4
SHEET 1 1124 680
WIRE 768 -112 768 -176
WIRE 832 -112 768 -112
WIRE 944 -112 832 -112
WIRE 1040 -112 944 -112
WIRE 832 -64 832 -112
WIRE 752 48 752 -176
WIRE 832 48 832 16
WIRE 832 48 752 48
WIRE -160 80 -416 80
WIRE 224 80 16 80
WIRE 384 80 224 80
WIRE 608 80 528 80
WIRE 784 80 784 -176
WIRE 784 80 608 80
WIRE 832 96 832 48
WIRE 1040 96 1040 -112
WIRE -416 112 -416 80
WIRE 944 112 944 -112
WIRE 608 128 608 80
WIRE 528 144 528 80
WIRE 528 144 384 144
WIRE 528 160 336 160
WIRE 224 176 224 144
WIRE 336 176 336 160
WIRE 336 176 224 176
WIRE 384 176 384 144
WIRE -416 240 -416 192
WIRE -160 240 -160 176
WIRE -160 240 -416 240
WIRE 16 240 16 176
WIRE 224 240 16 240
WIRE 384 240 224 240
WIRE 528 240 528 160
WIRE 608 240 608 192
WIRE 608 240 528 240
WIRE 832 240 832 176
WIRE 832 240 608 240
WIRE 944 240 944 176
WIRE 944 240 832 240
WIRE 1040 240 1040 176
WIRE 1040 240 944 240
WIRE 528 304 528 240
FLAG 528 304 0
SYMBOL Misc\\signal -416 96 R0
WINDOW 123 0 0 Left 2
WINDOW 39 0 0 Left 2
SYMATTR InstName V1
SYMATTR Value SINE(0 220 60)
SYMBOL res 1024 80 R0
SYMATTR InstName R1
SYMATTR Value 50
SYMBOL diode 368 80 R0
SYMATTR InstName D1
SYMATTR Value 1N4001
SYMBOL diode 400 240 R180
WINDOW 0 24 64 Left 2
WINDOW 3 24 0 Left 2
SYMATTR InstName D2
SYMATTR Value 1N4001
SYMBOL diode 240 144 R180
WINDOW 0 24 64 Left 2
WINDOW 3 24 0 Left 2
SYMATTR InstName D3
SYMATTR Value 1N4001
SYMBOL diode 208 176 R0
SYMATTR InstName D4
SYMATTR Value 1N4001
SYMBOL polcap 592 128 R0
WINDOW 3 24 56 Left 2
SYMATTR Value 1000µ
SYMATTR InstName C1
SYMATTR Description Capacitor
SYMATTR Type cap
SYMATTR SpiceLine V=25 Irms=145m Rser=0.62 Lser=0
SYMBOL Reguladores\\LM317 768 -240 R0
SYMATTR InstName U1
SYMBOL res 816 -80 R0
SYMATTR InstName R2
SYMATTR Value 260
SYMBOL res 816 80 R0
SYMATTR InstName R3
SYMATTR Value 2200
SYMBOL polcap 928 112 R0
WINDOW 3 24 56 Left 2
SYMATTR Value 0.1µ
SYMATTR InstName C2
SYMATTR Description Capacitor
SYMATTR Type cap
SYMATTR SpiceLine V=25 Irms=145m Rser=0.62 Lser=0
SYMBOL Trafos\\trafo12V -64 128 R0
SYMATTR InstName U2
TEXT 416 16 Left 2 !.tran 100m
